New Loadshape.loadshape_S1a npts=35040 interval=0.25 mult=(file=../profiles/load_profiles/loadshape_S1a.csv) qmult=(file=../profiles/load_profiles/loadshape_S1a.csv)
New Loadshape.loadshape_S2b npts=35040 interval=0.25 mult=(file=../profiles/load_profiles/loadshape_S2b.csv) qmult=(file=../profiles/load_profiles/loadshape_S2b.csv)
New Loadshape.loadshape_S4c npts=35040 interval=0.25 mult=(file=../profiles/load_profiles/loadshape_S4c.csv) qmult=(file=../profiles/load_profiles/loadshape_S4c.csv)
New Loadshape.loadshape_S5c npts=35040 interval=0.25 mult=(file=../profiles/load_profiles/loadshape_S5c.csv) qmult=(file=../profiles/load_profiles/loadshape_S5c.csv)
New Loadshape.loadshape_S6c npts=35040 interval=0.25 mult=(file=../profiles/load_profiles/loadshape_S6c.csv) qmult=(file=../profiles/load_profiles/loadshape_S6c.csv)
New Loadshape.loadshape_S7a npts=35040 interval=0.25 mult=(file=../profiles/load_profiles/loadshape_S7a.csv) qmult=(file=../profiles/load_profiles/loadshape_S7a.csv)
New Loadshape.loadshape_S9a npts=35040 interval=0.25 mult=(file=../profiles/load_profiles/loadshape_S9a.csv) qmult=(file=../profiles/load_profiles/loadshape_S9a.csv)
New Loadshape.loadshape_S10a npts=35040 interval=0.25 mult=(file=../profiles/load_profiles/loadshape_S10a.csv) qmult=(file=../profiles/load_profiles/loadshape_S10a.csv)
New Loadshape.loadshape_S11a npts=35040 interval=0.25 mult=(file=../profiles/load_profiles/loadshape_S11a.csv) qmult=(file=../profiles/load_profiles/loadshape_S11a.csv)
New Loadshape.loadshape_S12b npts=35040 interval=0.25 mult=(file=../profiles/load_profiles/loadshape_S12b.csv) qmult=(file=../profiles/load_profiles/loadshape_S12b.csv)
New Loadshape.loadshape_S16c npts=35040 interval=0.25 mult=(file=../profiles/load_profiles/loadshape_S16c.csv) qmult=(file=../profiles/load_profiles/loadshape_S16c.csv)
New Loadshape.loadshape_S17c npts=35040 interval=0.25 mult=(file=../profiles/load_profiles/loadshape_S17c.csv) qmult=(file=../profiles/load_profiles/loadshape_S17c.csv)
New Loadshape.loadshape_S19a npts=35040 interval=0.25 mult=(file=../profiles/load_profiles/loadshape_S19a.csv) qmult=(file=../profiles/load_profiles/loadshape_S19a.csv)
New Loadshape.loadshape_S20a npts=35040 interval=0.25 mult=(file=../profiles/load_profiles/loadshape_S20a.csv) qmult=(file=../profiles/load_profiles/loadshape_S20a.csv)
New Loadshape.loadshape_S22b npts=35040 interval=0.25 mult=(file=../profiles/load_profiles/loadshape_S22b.csv) qmult=(file=../profiles/load_profiles/loadshape_S22b.csv)
New Loadshape.loadshape_S24c npts=35040 interval=0.25 mult=(file=../profiles/load_profiles/loadshape_S24c.csv) qmult=(file=../profiles/load_profiles/loadshape_S24c.csv)
New Loadshape.loadshape_S28a npts=35040 interval=0.25 mult=(file=../profiles/load_profiles/loadshape_S28a.csv) qmult=(file=../profiles/load_profiles/loadshape_S28a.csv)
New Loadshape.loadshape_S29a npts=35040 interval=0.25 mult=(file=../profiles/load_profiles/loadshape_S29a.csv) qmult=(file=../profiles/load_profiles/loadshape_S29a.csv)
New Loadshape.loadshape_S30c npts=35040 interval=0.25 mult=(file=../profiles/load_profiles/loadshape_S30c.csv) qmult=(file=../profiles/load_profiles/loadshape_S30c.csv)
New Loadshape.loadshape_S31c npts=35040 interval=0.25 mult=(file=../profiles/load_profiles/loadshape_S31c.csv) qmult=(file=../profiles/load_profiles/loadshape_S31c.csv)
New Loadshape.loadshape_S32c npts=35040 interval=0.25 mult=(file=../profiles/load_profiles/loadshape_S32c.csv) qmult=(file=../profiles/load_profiles/loadshape_S32c.csv)
New Loadshape.loadshape_S33a npts=35040 interval=0.25 mult=(file=../profiles/load_profiles/loadshape_S33a.csv) qmult=(file=../profiles/load_profiles/loadshape_S33a.csv)
New Loadshape.loadshape_S34c npts=35040 interval=0.25 mult=(file=../profiles/load_profiles/loadshape_S34c.csv) qmult=(file=../profiles/load_profiles/loadshape_S34c.csv)
New Loadshape.loadshape_S35a npts=35040 interval=0.25 mult=(file=../profiles/load_profiles/loadshape_S35a.csv) qmult=(file=../profiles/load_profiles/loadshape_S35a.csv)
New Loadshape.loadshape_S37a npts=35040 interval=0.25 mult=(file=../profiles/load_profiles/loadshape_S37a.csv) qmult=(file=../profiles/load_profiles/loadshape_S37a.csv)
New Loadshape.loadshape_S38b npts=35040 interval=0.25 mult=(file=../profiles/load_profiles/loadshape_S38b.csv) qmult=(file=../profiles/load_profiles/loadshape_S38b.csv)
New Loadshape.loadshape_S39b npts=35040 interval=0.25 mult=(file=../profiles/load_profiles/loadshape_S39b.csv) qmult=(file=../profiles/load_profiles/loadshape_S39b.csv)
New Loadshape.loadshape_S41c npts=35040 interval=0.25 mult=(file=../profiles/load_profiles/loadshape_S41c.csv) qmult=(file=../profiles/load_profiles/loadshape_S41c.csv)
New Loadshape.loadshape_S42a npts=35040 interval=0.25 mult=(file=../profiles/load_profiles/loadshape_S42a.csv) qmult=(file=../profiles/load_profiles/loadshape_S42a.csv)
New Loadshape.loadshape_S43b npts=35040 interval=0.25 mult=(file=../profiles/load_profiles/loadshape_S43b.csv) qmult=(file=../profiles/load_profiles/loadshape_S43b.csv)
New Loadshape.loadshape_S45a npts=35040 interval=0.25 mult=(file=../profiles/load_profiles/loadshape_S45a.csv) qmult=(file=../profiles/load_profiles/loadshape_S45a.csv)
New Loadshape.loadshape_S46a npts=35040 interval=0.25 mult=(file=../profiles/load_profiles/loadshape_S46a.csv) qmult=(file=../profiles/load_profiles/loadshape_S46a.csv)
New Loadshape.loadshape_S47 npts=35040 interval=0.25 mult=(file=../profiles/load_profiles/loadshape_S47.csv) qmult=(file=../profiles/load_profiles/loadshape_S47.csv)
New Loadshape.loadshape_S48 npts=35040 interval=0.25 mult=(file=../profiles/load_profiles/loadshape_S48.csv) qmult=(file=../profiles/load_profiles/loadshape_S48.csv)
New Loadshape.loadshape_S49a npts=35040 interval=0.25 mult=(file=../profiles/load_profiles/loadshape_S49a.csv) qmult=(file=../profiles/load_profiles/loadshape_S49a.csv)
New Loadshape.loadshape_S49b npts=35040 interval=0.25 mult=(file=../profiles/load_profiles/loadshape_S49b.csv) qmult=(file=../profiles/load_profiles/loadshape_S49b.csv)
New Loadshape.loadshape_S49c npts=35040 interval=0.25 mult=(file=../profiles/load_profiles/loadshape_S49c.csv) qmult=(file=../profiles/load_profiles/loadshape_S49c.csv)
New Loadshape.loadshape_S50c npts=35040 interval=0.25 mult=(file=../profiles/load_profiles/loadshape_S50c.csv) qmult=(file=../profiles/load_profiles/loadshape_S50c.csv)
New Loadshape.loadshape_S51a npts=35040 interval=0.25 mult=(file=../profiles/load_profiles/loadshape_S51a.csv) qmult=(file=../profiles/load_profiles/loadshape_S51a.csv)
New Loadshape.loadshape_S52a npts=35040 interval=0.25 mult=(file=../profiles/load_profiles/loadshape_S52a.csv) qmult=(file=../profiles/load_profiles/loadshape_S52a.csv)
New Loadshape.loadshape_S53a npts=35040 interval=0.25 mult=(file=../profiles/load_profiles/loadshape_S53a.csv) qmult=(file=../profiles/load_profiles/loadshape_S53a.csv)
New Loadshape.loadshape_S55a npts=35040 interval=0.25 mult=(file=../profiles/load_profiles/loadshape_S55a.csv) qmult=(file=../profiles/load_profiles/loadshape_S55a.csv)
New Loadshape.loadshape_S56b npts=35040 interval=0.25 mult=(file=../profiles/load_profiles/loadshape_S56b.csv) qmult=(file=../profiles/load_profiles/loadshape_S56b.csv)
New Loadshape.loadshape_S58b npts=35040 interval=0.25 mult=(file=../profiles/load_profiles/loadshape_S58b.csv) qmult=(file=../profiles/load_profiles/loadshape_S58b.csv)
New Loadshape.loadshape_S59b npts=35040 interval=0.25 mult=(file=../profiles/load_profiles/loadshape_S59b.csv) qmult=(file=../profiles/load_profiles/loadshape_S59b.csv)
New Loadshape.loadshape_S60a npts=35040 interval=0.25 mult=(file=../profiles/load_profiles/loadshape_S60a.csv) qmult=(file=../profiles/load_profiles/loadshape_S60a.csv)
New Loadshape.loadshape_S62c npts=35040 interval=0.25 mult=(file=../profiles/load_profiles/loadshape_S62c.csv) qmult=(file=../profiles/load_profiles/loadshape_S62c.csv)
New Loadshape.loadshape_S63a npts=35040 interval=0.25 mult=(file=../profiles/load_profiles/loadshape_S63a.csv) qmult=(file=../profiles/load_profiles/loadshape_S63a.csv)
New Loadshape.loadshape_S64b npts=35040 interval=0.25 mult=(file=../profiles/load_profiles/loadshape_S64b.csv) qmult=(file=../profiles/load_profiles/loadshape_S64b.csv)
New Loadshape.loadshape_S65a npts=35040 interval=0.25 mult=(file=../profiles/load_profiles/loadshape_S65a.csv) qmult=(file=../profiles/load_profiles/loadshape_S65a.csv)
New Loadshape.loadshape_S65b npts=35040 interval=0.25 mult=(file=../profiles/load_profiles/loadshape_S65b.csv) qmult=(file=../profiles/load_profiles/loadshape_S65b.csv)
New Loadshape.loadshape_S65c npts=35040 interval=0.25 mult=(file=../profiles/load_profiles/loadshape_S65c.csv) qmult=(file=../profiles/load_profiles/loadshape_S65c.csv)
New Loadshape.loadshape_S66c npts=35040 interval=0.25 mult=(file=../profiles/load_profiles/loadshape_S66c.csv) qmult=(file=../profiles/load_profiles/loadshape_S66c.csv)
New Loadshape.loadshape_S68a npts=35040 interval=0.25 mult=(file=../profiles/load_profiles/loadshape_S68a.csv) qmult=(file=../profiles/load_profiles/loadshape_S68a.csv)
New Loadshape.loadshape_S69a npts=35040 interval=0.25 mult=(file=../profiles/load_profiles/loadshape_S69a.csv) qmult=(file=../profiles/load_profiles/loadshape_S69a.csv)
New Loadshape.loadshape_S70a npts=35040 interval=0.25 mult=(file=../profiles/load_profiles/loadshape_S70a.csv) qmult=(file=../profiles/load_profiles/loadshape_S70a.csv)
New Loadshape.loadshape_S71a npts=35040 interval=0.25 mult=(file=../profiles/load_profiles/loadshape_S71a.csv) qmult=(file=../profiles/load_profiles/loadshape_S71a.csv)
New Loadshape.loadshape_S73c npts=35040 interval=0.25 mult=(file=../profiles/load_profiles/loadshape_S73c.csv) qmult=(file=../profiles/load_profiles/loadshape_S73c.csv)
New Loadshape.loadshape_S74c npts=35040 interval=0.25 mult=(file=../profiles/load_profiles/loadshape_S74c.csv) qmult=(file=../profiles/load_profiles/loadshape_S74c.csv)
New Loadshape.loadshape_S75c npts=35040 interval=0.25 mult=(file=../profiles/load_profiles/loadshape_S75c.csv) qmult=(file=../profiles/load_profiles/loadshape_S75c.csv)
New Loadshape.loadshape_S76a npts=35040 interval=0.25 mult=(file=../profiles/load_profiles/loadshape_S76a.csv) qmult=(file=../profiles/load_profiles/loadshape_S76a.csv)
New Loadshape.loadshape_S76b npts=35040 interval=0.25 mult=(file=../profiles/load_profiles/loadshape_S76b.csv) qmult=(file=../profiles/load_profiles/loadshape_S76b.csv)
New Loadshape.loadshape_S76c npts=35040 interval=0.25 mult=(file=../profiles/load_profiles/loadshape_S76c.csv) qmult=(file=../profiles/load_profiles/loadshape_S76c.csv)
New Loadshape.loadshape_S77b npts=35040 interval=0.25 mult=(file=../profiles/load_profiles/loadshape_S77b.csv) qmult=(file=../profiles/load_profiles/loadshape_S77b.csv)
New Loadshape.loadshape_S79a npts=35040 interval=0.25 mult=(file=../profiles/load_profiles/loadshape_S79a.csv) qmult=(file=../profiles/load_profiles/loadshape_S79a.csv)
New Loadshape.loadshape_S80b npts=35040 interval=0.25 mult=(file=../profiles/load_profiles/loadshape_S80b.csv) qmult=(file=../profiles/load_profiles/loadshape_S80b.csv)
New Loadshape.loadshape_S82a npts=35040 interval=0.25 mult=(file=../profiles/load_profiles/loadshape_S82a.csv) qmult=(file=../profiles/load_profiles/loadshape_S82a.csv)
New Loadshape.loadshape_S83c npts=35040 interval=0.25 mult=(file=../profiles/load_profiles/loadshape_S83c.csv) qmult=(file=../profiles/load_profiles/loadshape_S83c.csv)
New Loadshape.loadshape_S84c npts=35040 interval=0.25 mult=(file=../profiles/load_profiles/loadshape_S84c.csv) qmult=(file=../profiles/load_profiles/loadshape_S84c.csv)
New Loadshape.loadshape_S85c npts=35040 interval=0.25 mult=(file=../profiles/load_profiles/loadshape_S85c.csv) qmult=(file=../profiles/load_profiles/loadshape_S85c.csv)
New Loadshape.loadshape_S86b npts=35040 interval=0.25 mult=(file=../profiles/load_profiles/loadshape_S86b.csv) qmult=(file=../profiles/load_profiles/loadshape_S86b.csv)
New Loadshape.loadshape_S87b npts=35040 interval=0.25 mult=(file=../profiles/load_profiles/loadshape_S87b.csv) qmult=(file=../profiles/load_profiles/loadshape_S87b.csv)
New Loadshape.loadshape_S88a npts=35040 interval=0.25 mult=(file=../profiles/load_profiles/loadshape_S88a.csv) qmult=(file=../profiles/load_profiles/loadshape_S88a.csv)
New Loadshape.loadshape_S90b npts=35040 interval=0.25 mult=(file=../profiles/load_profiles/loadshape_S90b.csv) qmult=(file=../profiles/load_profiles/loadshape_S90b.csv)
New Loadshape.loadshape_S92c npts=35040 interval=0.25 mult=(file=../profiles/load_profiles/loadshape_S92c.csv) qmult=(file=../profiles/load_profiles/loadshape_S92c.csv)
New Loadshape.loadshape_S94a npts=35040 interval=0.25 mult=(file=../profiles/load_profiles/loadshape_S94a.csv) qmult=(file=../profiles/load_profiles/loadshape_S94a.csv)
New Loadshape.loadshape_S95b npts=35040 interval=0.25 mult=(file=../profiles/load_profiles/loadshape_S95b.csv) qmult=(file=../profiles/load_profiles/loadshape_S95b.csv)
New Loadshape.loadshape_S96b npts=35040 interval=0.25 mult=(file=../profiles/load_profiles/loadshape_S96b.csv) qmult=(file=../profiles/load_profiles/loadshape_S96b.csv)
New Loadshape.loadshape_S98a npts=35040 interval=0.25 mult=(file=../profiles/load_profiles/loadshape_S98a.csv) qmult=(file=../profiles/load_profiles/loadshape_S98a.csv)
New Loadshape.loadshape_S99b npts=35040 interval=0.25 mult=(file=../profiles/load_profiles/loadshape_S99b.csv) qmult=(file=../profiles/load_profiles/loadshape_S99b.csv)
New Loadshape.loadshape_S100c npts=35040 interval=0.25 mult=(file=../profiles/load_profiles/loadshape_S100c.csv) qmult=(file=../profiles/load_profiles/loadshape_S100c.csv)
New Loadshape.loadshape_S102c npts=35040 interval=0.25 mult=(file=../profiles/load_profiles/loadshape_S102c.csv) qmult=(file=../profiles/load_profiles/loadshape_S102c.csv)
New Loadshape.loadshape_S103c npts=35040 interval=0.25 mult=(file=../profiles/load_profiles/loadshape_S103c.csv) qmult=(file=../profiles/load_profiles/loadshape_S103c.csv)
New Loadshape.loadshape_S104c npts=35040 interval=0.25 mult=(file=../profiles/load_profiles/loadshape_S104c.csv) qmult=(file=../profiles/load_profiles/loadshape_S104c.csv)
New Loadshape.loadshape_S106b npts=35040 interval=0.25 mult=(file=../profiles/load_profiles/loadshape_S106b.csv) qmult=(file=../profiles/load_profiles/loadshape_S106b.csv)
New Loadshape.loadshape_S107b npts=35040 interval=0.25 mult=(file=../profiles/load_profiles/loadshape_S107b.csv) qmult=(file=../profiles/load_profiles/loadshape_S107b.csv)
New Loadshape.loadshape_S109a npts=35040 interval=0.25 mult=(file=../profiles/load_profiles/loadshape_S109a.csv) qmult=(file=../profiles/load_profiles/loadshape_S109a.csv)
New Loadshape.loadshape_S111a npts=35040 interval=0.25 mult=(file=../profiles/load_profiles/loadshape_S111a.csv) qmult=(file=../profiles/load_profiles/loadshape_S111a.csv)
New Loadshape.loadshape_S112a npts=35040 interval=0.25 mult=(file=../profiles/load_profiles/loadshape_S112a.csv) qmult=(file=../profiles/load_profiles/loadshape_S112a.csv)
New Loadshape.loadshape_S113a npts=35040 interval=0.25 mult=(file=../profiles/load_profiles/loadshape_S113a.csv) qmult=(file=../profiles/load_profiles/loadshape_S113a.csv)
New Loadshape.loadshape_S114a npts=35040 interval=0.25 mult=(file=../profiles/load_profiles/loadshape_S114a.csv) qmult=(file=../profiles/load_profiles/loadshape_S114a.csv)
